@<TRIPOS>MOLECULE
MOL
   19    18     1     0     0
SMALL
No Charge or Current Charge


@<TRIPOS>ATOM
      1 H           -0.1660     2.5890    -0.2030 ho         0 MOL       0.425234
      2 O           -0.6950     1.8160    -0.3360 oh         0 MOL      -0.740851
      3 B           -0.0040     0.6800    -0.0410 B          0 MOL       0.916675
      4 O1           1.2760     0.7930     0.3900 os         0 MOL      -0.584834
      5 C            2.0810    -0.3200     0.7070 c3         0 MOL       0.351772
      6 C1           2.8020    -0.8460    -0.5220 c3         0 MOL      -0.254733
      7 H1           3.3950    -0.0620    -0.9800 hc         0 MOL       0.065923
      8 H2           2.0930    -1.2150    -1.2550 hc         0 MOL       0.065923
      9 H3           3.4660    -1.6630    -0.2510 hc         0 MOL       0.065923
     10 H4           1.4780    -1.0990     1.1550 h1         0 MOL      -0.005252
     11 H5           2.7960     0.0200     1.4450 h1         0 MOL      -0.005252
     12 O2          -0.5850    -0.5340    -0.1770 os         0 MOL      -0.584834
     13 C2          -1.9220    -0.7000    -0.5940 c3         0 MOL       0.351772
     14 C3          -2.8780    -0.6420     0.5840 c3         0 MOL      -0.254733
     15 H6          -3.8950    -0.8350     0.2550 hc         0 MOL       0.065923
     16 H7          -2.8530     0.3360     1.0520 hc         0 MOL       0.065923
     17 H8          -2.6110    -1.3870     1.3260 hc         0 MOL       0.065923
     18 H9          -2.1780     0.0530    -1.3290 h1         0 MOL      -0.005252
     19 H10         -1.9740    -1.6700    -1.0740 h1         0 MOL      -0.005252
@<TRIPOS>BOND
     1     1     2 1   
     2     2     3 1   
     3     3     4 1   
     4     3    12 1   
     5     4     5 1   
     6     5     6 1   
     7     5    10 1   
     8     5    11 1   
     9     6     7 1   
    10     6     8 1   
    11     6     9 1   
    12    12    13 1   
    13    13    14 1   
    14    13    18 1   
    15    13    19 1   
    16    14    15 1   
    17    14    16 1   
    18    14    17 1   
@<TRIPOS>SUBSTRUCTURE
     1 MOL         1 TEMP              0 ****  ****    0 ROOT
